LTspice 24.0.12 for Windows
Circuit: * C:\Users\paul\Documents\GitHub\Student-Research-Project\schematics\ltspice\Student Research.asc
Start Time: Thu Feb 13 15:12:32 2025
solver = Normal
Maximum thread count: 22
tnom = 27
temp = 27
method = modified trap
WARNING: Node NC_02 is floating.
WARNING: Node NC_04 is floating.

WARNING: Less than two connections to node nc_01.  This node is used by r7.
WARNING: Less than two connections to node nc_02.  This node is used by r7.
WARNING: Less than two connections to node nc_03.  This node is used by r2.
WARNING: Less than two connections to node nc_04.  This node is used by r2.
Instance "m:u1:12": Length shorter than recommended for a level 1 MOSFET.
Instance "m:u1:14": Length shorter than recommended for a level 1 MOSFET.
Instance "m:u2:12": Length shorter than recommended for a level 1 MOSFET.
Instance "m:u2:14": Length shorter than recommended for a level 1 MOSFET.
Instance "m:u3:12": Length shorter than recommended for a level 1 MOSFET.
Instance "m:u3:14": Length shorter than recommended for a level 1 MOSFET.
Direct Newton iteration failed to find .op point.  (Use ".option noopiter" to skip.)
Starting Gmin stepping
Increasing initial diagonal Gmin to 100
Increasing initial diagonal Gmin to 1000
Increasing initial diagonal Gmin to 10000
Increasing initial diagonal Gmin to 100000
Increasing initial diagonal Gmin to 1e+06
Initial Gmin=1e+06 failed
Gmin stepping failed

Starting source stepping with srcstepmethod=0
Source Step = 3.0303%
vernier = 0.25
Source Step = 2.93561%
Source Step = 3.40909%
Source Step = 3.88258%
Source Step = 4.35606%
Source Step = 4.82955%
vernier = 0.0234375
Source Step = 5.3267%
Source Step = 6.03693%
Source Step = 6.74716%
Source Step = 7.45739%
Source Step = 8.16761%
Source Step = 8.87784%
vernier = 0.0351562
Source Step = 9.94318%
Source Step = 10.8221%
vernier = 0.00219727
Starting source stepping with srcstepmethod=1
Source Step = 3.0303%
vernier = 0.25
Source stepping failed

Pseudo Transient succeeded in finding the operating point at 53.0624 s.
Total elapsed time: 1.294 seconds.

